Localizador/34Bus/ieee34-1_VLN_elem.Txt

NODE-GROUND VOLTAGES BY CIRCUIT ELEMENT

Power Delivery Elements

Bus       (node ref)  Phase    Magnitude, kV (pu)    Angle

ELEMENT = "Vsource.SOURCE"
SOURCEBUS  (  1)    1           68.741 (   1.726) /_   29.3
SOURCEBUS  (  2)    2           68.801 (   1.727) /_  -90.6
SOURCEBUS  (  3)    3           68.848 (   1.728) /_  149.3
------------
SOURCEBUS  (  0)    0                0 (       0) /_    0.0
SOURCEBUS  (  0)    0                0 (       0) /_    0.0
SOURCEBUS  (  0)    0                0 (       0) /_    0.0

ELEMENT = "Transformer.SUBXF"
SOURCEBUS  (  1)    1           68.741 (   1.726) /_   29.3
SOURCEBUS  (  2)    2           68.801 (   1.727) /_  -90.6
SOURCEBUS  (  3)    3           68.848 (   1.728) /_  149.3
SOURCEBUS  (  0)    0                0 (       0) /_    0.0
------------
800        (  4)    1            14.89 (   1.036) /_   -0.8
800        (  5)    2            14.88 (   1.035) /_ -120.7
800        (  6)    3           14.904 (   1.037) /_  119.3
800        (  0)    0                0 (       0) /_    0.0

ELEMENT = "Line.L1"
800        (  4)    1            14.89 (   1.036) /_   -0.8
800        (  5)    2            14.88 (   1.035) /_ -120.7
800        (  6)    3           14.904 (   1.037) /_  119.3
------------
802        (  7)    1           14.293 (  0.9942) /_   -0.7
802        (  8)    2           14.355 (  0.9985) /_ -121.0
802        (  9)    3           14.437 (   1.004) /_  119.2

ELEMENT = "Line.L2"
802        (  7)    1           14.293 (  0.9942) /_   -0.7
802        (  8)    2           14.355 (  0.9985) /_ -121.0
802        (  9)    3           14.437 (   1.004) /_  119.2
------------
806        ( 10)    1            13.89 (  0.9662) /_   -0.6
806        ( 11)    2           14.017 (  0.9751) /_ -121.2
806        ( 12)    3           14.132 (   0.983) /_  119.1

ELEMENT = "Line.L3"
806        ( 10)    1            13.89 (  0.9662) /_   -0.6
806        ( 11)    2           14.017 (  0.9751) /_ -121.2
806        ( 12)    3           14.132 (   0.983) /_  119.1
------------
808        ( 13)    1           13.272 (  0.9232) /_   -0.6
808        ( 14)    2           13.524 (  0.9408) /_ -121.6
808        ( 15)    3           13.679 (  0.9515) /_  119.1

ELEMENT = "Line.L4"
808        ( 14)    2           13.524 (  0.9408) /_ -121.6
------------
810        ( 16)    2           13.482 (  0.9378) /_ -121.6

ELEMENT = "Line.L5"
808        ( 13)    1           13.272 (  0.9232) /_   -0.6
808        ( 14)    2           13.524 (  0.9408) /_ -121.6
808        ( 15)    3           13.679 (  0.9515) /_  119.1
------------
812        ( 17)    1           12.163 (  0.8461) /_   -0.5
812        ( 18)    2           12.678 (  0.8819) /_ -122.2
812        ( 19)    3           12.854 (  0.8941) /_  119.0

ELEMENT = "Line.L6"
812        ( 17)    1           12.163 (  0.8461) /_   -0.5
812        ( 18)    2           12.678 (  0.8819) /_ -122.2
812        ( 19)    3           12.854 (  0.8941) /_  119.0
------------
814        ( 20)    1           9.2766 (  0.6453) /_   -0.2
814        ( 21)    2           10.482 (  0.7291) /_ -124.2
814        ( 22)    3           10.706 (  0.7447) /_  118.6

ELEMENT = "Line.L7"
814R       ( 23)    1           10.121 (   0.704) /_   -0.6
814R       ( 24)    2           11.458 (   0.797) /_ -124.5
814R       ( 25)    3           11.712 (  0.8147) /_  118.3
------------
850        ( 26)    1           9.9002 (  0.6887) /_   -0.3
850        ( 27)    2           11.283 (  0.7848) /_ -124.5
850        ( 28)    3           11.544 (   0.803) /_  118.5

ELEMENT = "Line.L8"
816        ( 29)    1           9.6797 (  0.6733) /_   -0.1
------------
818        ( 30)    1           9.5825 (  0.6666) /_   -0.1

ELEMENT = "Line.L9"
816        ( 29)    1           9.6797 (  0.6733) /_   -0.1
816        ( 31)    2           11.108 (  0.7727) /_ -124.5
816        ( 32)    3           11.376 (  0.7913) /_  118.6
------------
824        ( 33)    1           9.5318 (   0.663) /_    0.2
824        ( 34)    2           10.913 (  0.7591) /_ -124.5
824        ( 35)    3           11.213 (  0.7799) /_  118.6

ELEMENT = "Line.L10"
818        ( 30)    1           9.5825 (  0.6666) /_   -0.1
------------
820        ( 36)    1           9.4937 (  0.6604) /_   -0.1

ELEMENT = "Line.L11"
820        ( 36)    1           9.4937 (  0.6604) /_   -0.1
------------
822        ( 37)    1           9.4535 (  0.6576) /_   -0.1

ELEMENT = "Line.L12"
824        ( 34)    2           10.913 (  0.7591) /_ -124.5
------------
826        ( 38)    2             10.9 (  0.7582) /_ -124.5

ELEMENT = "Line.L13"
824        ( 33)    1           9.5318 (   0.663) /_    0.2
824        ( 34)    2           10.913 (  0.7591) /_ -124.5
824        ( 35)    3           11.213 (  0.7799) /_  118.6
------------
828        ( 39)    1           9.3848 (  0.6528) /_    0.5
828        ( 40)    2           10.737 (  0.7469) /_ -124.4
828        ( 41)    3           11.046 (  0.7684) /_  118.6

ELEMENT = "Line.L14"
828        ( 39)    1           9.3848 (  0.6528) /_    0.5
828        ( 40)    2           10.737 (  0.7469) /_ -124.4
828        ( 41)    3           11.046 (  0.7684) /_  118.6
------------
830        ( 42)    1           9.2391 (  0.6427) /_    0.7
830        ( 43)    2           10.561 (  0.7346) /_ -124.4
830        ( 44)    3           10.882 (  0.7569) /_  118.6

ELEMENT = "Line.L15"
830        ( 42)    1           9.2391 (  0.6427) /_    0.7
830        ( 43)    2           10.561 (  0.7346) /_ -124.4
830        ( 44)    3           10.882 (  0.7569) /_  118.6
------------
854        ( 45)    1           9.1005 (   0.633) /_    1.0
854        ( 46)    2           10.388 (  0.7226) /_ -124.3
854        ( 47)    3           10.722 (  0.7458) /_  118.7

ELEMENT = "Line.L16"
832        ( 48)    1           9.6777 (  0.6732) /_    1.4
832        ( 49)    2           11.023 (  0.7667) /_ -124.4
832        ( 50)    3           11.416 (  0.7941) /_  118.5
------------
858        ( 51)    1            9.576 (  0.6661) /_    1.6
858        ( 52)    2           10.891 (  0.7576) /_ -124.4
858        ( 53)    3           11.295 (  0.7857) /_  118.5

ELEMENT = "Line.L17"
834        ( 54)    1           9.4773 (  0.6592) /_    1.8
834        ( 55)    2           10.762 (  0.7486) /_ -124.4
834        ( 56)    3           11.178 (  0.7776) /_  118.5
------------
860        ( 57)    1           9.4398 (  0.6566) /_    1.9
860        ( 58)    2           10.716 (  0.7454) /_ -124.4
860        ( 59)    3           11.141 (   0.775) /_  118.5

ELEMENT = "Line.L18"
834        ( 54)    1           9.4773 (  0.6592) /_    1.8
834        ( 55)    2           10.762 (  0.7486) /_ -124.4
834        ( 56)    3           11.178 (  0.7776) /_  118.5
------------
842        ( 60)    1           9.4273 (  0.6558) /_    1.9
842        ( 61)    2           10.682 (   0.743) /_ -124.3
842        ( 62)    3           11.112 (  0.7729) /_  118.5

ELEMENT = "Line.L19"
836        ( 63)    1           9.4259 (  0.6557) /_    1.9
836        ( 64)    2           10.686 (  0.7433) /_ -124.4
836        ( 65)    3           11.131 (  0.7743) /_  118.5
------------
840        ( 66)    1           9.4213 (  0.6553) /_    1.9
840        ( 67)    2           10.679 (  0.7428) /_ -124.4
840        ( 68)    3           11.125 (  0.7738) /_  118.5

ELEMENT = "Line.L20"
836        ( 63)    1           9.4259 (  0.6557) /_    1.9
836        ( 64)    2           10.686 (  0.7433) /_ -124.4
836        ( 65)    3           11.131 (  0.7743) /_  118.5
------------
862        ( 69)    1           9.4253 (  0.6556) /_    1.9
862        ( 70)    2           10.671 (  0.7423) /_ -124.4
862        ( 71)    3           11.134 (  0.7745) /_  118.5

ELEMENT = "Line.L21"
842        ( 60)    1           9.4273 (  0.6558) /_    1.9
842        ( 61)    2           10.682 (   0.743) /_ -124.3
842        ( 62)    3           11.112 (  0.7729) /_  118.5
------------
844        ( 72)    1           9.3793 (  0.6524) /_    2.0
844        ( 73)    2           10.602 (  0.7375) /_ -124.3
844        ( 74)    3           11.045 (  0.7683) /_  118.5

ELEMENT = "Line.L22"
844        ( 72)    1           9.3793 (  0.6524) /_    2.0
844        ( 73)    2           10.602 (  0.7375) /_ -124.3
844        ( 74)    3           11.045 (  0.7683) /_  118.5
------------
846        ( 75)    1           9.3719 (  0.6519) /_    2.0
846        ( 76)    2           10.575 (  0.7356) /_ -124.3
846        ( 77)    3           11.035 (  0.7676) /_  118.5

ELEMENT = "Line.L23"
846        ( 75)    1           9.3719 (  0.6519) /_    2.0
846        ( 76)    2           10.575 (  0.7356) /_ -124.3
846        ( 77)    3           11.035 (  0.7676) /_  118.5
------------
848        ( 78)    1           9.3637 (  0.6513) /_    2.1
848        ( 79)    2           10.561 (  0.7346) /_ -124.3
848        ( 80)    3           11.029 (  0.7672) /_  118.5

ELEMENT = "Line.L24"
850        ( 26)    1           9.9002 (  0.6887) /_   -0.3
850        ( 27)    2           11.283 (  0.7848) /_ -124.5
850        ( 28)    3           11.544 (   0.803) /_  118.5
------------
816        ( 29)    1           9.6797 (  0.6733) /_   -0.1
816        ( 31)    2           11.108 (  0.7727) /_ -124.5
816        ( 32)    3           11.376 (  0.7913) /_  118.6

ELEMENT = "Line.L25"
852R       ( 81)    1           9.8034 (  0.6819) /_    1.2
852R       ( 82)    2           11.178 (  0.7776) /_ -124.5
852R       ( 83)    3           11.561 (  0.8042) /_  118.5
------------
832        ( 48)    1           9.6777 (  0.6732) /_    1.4
832        ( 49)    2           11.023 (  0.7667) /_ -124.4
832        ( 50)    3           11.416 (  0.7941) /_  118.5

ELEMENT = "Line.L26"
854        ( 46)    2           10.388 (  0.7226) /_ -124.3
------------
856        ( 84)    2           10.386 (  0.7225) /_ -124.3

ELEMENT = "Line.L27"
854        ( 45)    1           9.1005 (   0.633) /_    1.0
854        ( 46)    2           10.388 (  0.7226) /_ -124.3
854        ( 47)    3           10.722 (  0.7458) /_  118.7
------------
852        ( 85)    1           8.9622 (  0.6234) /_    1.3
852        ( 86)    2           10.216 (  0.7107) /_ -124.2
852        ( 87)    3           10.562 (  0.7347) /_  118.7

ELEMENT = "Line.L28"
858        ( 51)    1            9.576 (  0.6661) /_    1.6
------------
864        ( 88)    1           9.5754 (  0.6661) /_    1.6

ELEMENT = "Line.L29"
858        ( 51)    1            9.576 (  0.6661) /_    1.6
858        ( 52)    2           10.891 (  0.7576) /_ -124.4
858        ( 53)    3           11.295 (  0.7857) /_  118.5
------------
834        ( 54)    1           9.4773 (  0.6592) /_    1.8
834        ( 55)    2           10.762 (  0.7486) /_ -124.4
834        ( 56)    3           11.178 (  0.7776) /_  118.5

ELEMENT = "Line.L30"
860        ( 57)    1           9.4398 (  0.6566) /_    1.9
860        ( 58)    2           10.716 (  0.7454) /_ -124.4
860        ( 59)    3           11.141 (   0.775) /_  118.5
------------
836        ( 63)    1           9.4259 (  0.6557) /_    1.9
836        ( 64)    2           10.686 (  0.7433) /_ -124.4
836        ( 65)    3           11.131 (  0.7743) /_  118.5

ELEMENT = "Line.L31"
862        ( 70)    2           10.671 (  0.7423) /_ -124.4
------------
838        ( 89)    2           10.664 (  0.7418) /_ -124.4

ELEMENT = "Line.L32"
888        ( 90)    1          0.88329 (  0.3678) /_  -15.8
888        ( 91)    2           1.1126 (  0.4632) /_ -143.4
888        ( 92)    3           1.1376 (  0.4736) /_  104.9
------------
890        ( 93)    1          0.77165 (  0.3213) /_  -16.4
890        ( 94)    2           1.0088 (    0.42) /_ -145.4
890        ( 95)    3           1.0212 (  0.4252) /_  104.4

ELEMENT = "Transformer.XFM1"
832        ( 48)    1           9.6777 (  0.6732) /_    1.4
832        ( 49)    2           11.023 (  0.7667) /_ -124.4
832        ( 50)    3           11.416 (  0.7941) /_  118.5
832        (  0)    0                0 (       0) /_    0.0
------------
888        ( 90)    1          0.88329 (  0.3678) /_  -15.8
888        ( 91)    2           1.1126 (  0.4632) /_ -143.4
888        ( 92)    3           1.1376 (  0.4736) /_  104.9
888        (  0)    0                0 (       0) /_    0.0

ELEMENT = "Capacitor.C844"
844        ( 72)    1           9.3793 (  0.6524) /_    2.0
844        ( 73)    2           10.602 (  0.7375) /_ -124.3
844        ( 74)    3           11.045 (  0.7683) /_  118.5
------------
844        (  0)    0                0 (       0) /_    0.0
844        (  0)    0                0 (       0) /_    0.0
844        (  0)    0                0 (       0) /_    0.0

ELEMENT = "Capacitor.C848"
848        ( 78)    1           9.3637 (  0.6513) /_    2.1
848        ( 79)    2           10.561 (  0.7346) /_ -124.3
848        ( 80)    3           11.029 (  0.7672) /_  118.5
------------
848        (  0)    0                0 (       0) /_    0.0
848        (  0)    0                0 (       0) /_    0.0
848        (  0)    0                0 (       0) /_    0.0

ELEMENT = "Transformer.REG1A"
814        ( 20)    1           9.2766 (  0.6453) /_   -0.2
814        (  0)    0                0 (       0) /_    0.0
------------
814R       ( 23)    1           10.121 (   0.704) /_   -0.6
814R       (  0)    0                0 (       0) /_    0.0

ELEMENT = "Transformer.REG1B"
814        ( 21)    2           10.482 (  0.7291) /_ -124.2
814        (  0)    0                0 (       0) /_    0.0
------------
814R       ( 24)    2           11.458 (   0.797) /_ -124.5
814R       (  0)    0                0 (       0) /_    0.0

ELEMENT = "Transformer.REG1C"
814        ( 22)    3           10.706 (  0.7447) /_  118.6
814        (  0)    0                0 (       0) /_    0.0
------------
814R       ( 25)    3           11.712 (  0.8147) /_  118.3
814R       (  0)    0                0 (       0) /_    0.0

ELEMENT = "Transformer.REG2A"
852        ( 85)    1           8.9622 (  0.6234) /_    1.3
852        (  0)    0                0 (       0) /_    0.0
------------
852R       ( 81)    1           9.8034 (  0.6819) /_    1.2
852R       (  0)    0                0 (       0) /_    0.0

ELEMENT = "Transformer.REG2B"
852        ( 86)    2           10.216 (  0.7107) /_ -124.2
852        (  0)    0                0 (       0) /_    0.0
------------
852R       ( 82)    2           11.178 (  0.7776) /_ -124.5
852R       (  0)    0                0 (       0) /_    0.0

ELEMENT = "Transformer.REG2C"
852        ( 87)    3           10.562 (  0.7347) /_  118.7
852        (  0)    0                0 (       0) /_    0.0
------------
852R       ( 83)    3           11.561 (  0.8042) /_  118.5
852R       (  0)    0                0 (       0) /_    0.0

= = = = = = = = = = = = = = = = = = =  = = = = = = = = = = =  = =

Power Conversion Elements

Bus       (node ref)  Phase    Magnitude, kV (pu)    Angle

ELEMENT = "Load.S860"
860        ( 57)    1           9.4398 (  0.6566) /_    1.9
860        ( 58)    2           10.716 (  0.7454) /_ -124.4
860        ( 59)    3           11.141 (   0.775) /_  118.5
860        (  0)    0                0 (       0) /_    0.0

ELEMENT = "Load.S840"
840        ( 66)    1           9.4213 (  0.6553) /_    1.9
840        ( 67)    2           10.679 (  0.7428) /_ -124.4
840        ( 68)    3           11.125 (  0.7738) /_  118.5
840        (  0)    0                0 (       0) /_    0.0

ELEMENT = "Load.S844"
844        ( 72)    1           9.3793 (  0.6524) /_    2.0
844        ( 73)    2           10.602 (  0.7375) /_ -124.3
844        ( 74)    3           11.045 (  0.7683) /_  118.5
844        (  0)    0                0 (       0) /_    0.0

ELEMENT = "Load.S848"
848        ( 78)    1           9.3637 (  0.6513) /_    2.1
848        ( 79)    2           10.561 (  0.7346) /_ -124.3
848        ( 80)    3           11.029 (  0.7672) /_  118.5

ELEMENT = "Load.S830A"
830        ( 42)    1           9.2391 (  0.6427) /_    0.7
830        ( 43)    2           10.561 (  0.7346) /_ -124.4

ELEMENT = "Load.S830B"
830        ( 43)    2           10.561 (  0.7346) /_ -124.4
830        ( 44)    3           10.882 (  0.7569) /_  118.6

ELEMENT = "Load.S830C"
830        ( 44)    3           10.882 (  0.7569) /_  118.6
830        ( 42)    1           9.2391 (  0.6427) /_    0.7

ELEMENT = "Load.S890"
890        ( 93)    1          0.77165 (  0.3213) /_  -16.4
890        ( 94)    2           1.0088 (    0.42) /_ -145.4
890        ( 95)    3           1.0212 (  0.4252) /_  104.4

ELEMENT = "Load.D802_806SB"
802        (  8)    2           14.355 (  0.9985) /_ -121.0
802        (  0)    0                0 (       0) /_    0.0

ELEMENT = "Load.D802_806RB"
806        ( 11)    2           14.017 (  0.9751) /_ -121.2
806        (  0)    0                0 (       0) /_    0.0

ELEMENT = "Load.D802_806SC"
802        (  9)    3           14.437 (   1.004) /_  119.2
802        (  0)    0                0 (       0) /_    0.0

ELEMENT = "Load.D802_806RC"
806        ( 12)    3           14.132 (   0.983) /_  119.1
806        (  0)    0                0 (       0) /_    0.0

ELEMENT = "Load.D808_810SB"
808        ( 14)    2           13.524 (  0.9408) /_ -121.6
808        (  0)    0                0 (       0) /_    0.0

ELEMENT = "Load.D808_810RB"
810        ( 16)    2           13.482 (  0.9378) /_ -121.6
810        (  0)    0                0 (       0) /_    0.0

ELEMENT = "Load.D818_820SA"
818        ( 30)    1           9.5825 (  0.6666) /_   -0.1
818        (  0)    0                0 (       0) /_    0.0

ELEMENT = "Load.D818_820RA"
820        ( 36)    1           9.4937 (  0.6604) /_   -0.1
820        (  0)    0                0 (       0) /_    0.0

ELEMENT = "Load.D820_822SA"
820        ( 36)    1           9.4937 (  0.6604) /_   -0.1
820        (  0)    0                0 (       0) /_    0.0

ELEMENT = "Load.D820_822RA"
822        ( 37)    1           9.4535 (  0.6576) /_   -0.1
822        (  0)    0                0 (       0) /_    0.0

ELEMENT = "Load.D816_824SB"
816        ( 31)    2           11.108 (  0.7727) /_ -124.5
816        ( 32)    3           11.376 (  0.7913) /_  118.6

ELEMENT = "Load.D816_824RB"
824        ( 34)    2           10.913 (  0.7591) /_ -124.5
824        ( 35)    3           11.213 (  0.7799) /_  118.6

ELEMENT = "Load.D824_826SB"
824        ( 34)    2           10.913 (  0.7591) /_ -124.5
824        (  0)    0                0 (       0) /_    0.0

ELEMENT = "Load.D824_826RB"
826        ( 38)    2             10.9 (  0.7582) /_ -124.5
826        (  0)    0                0 (       0) /_    0.0

ELEMENT = "Load.D824_828SC"
824        ( 35)    3           11.213 (  0.7799) /_  118.6
824        (  0)    0                0 (       0) /_    0.0

ELEMENT = "Load.D824_828RC"
828        ( 41)    3           11.046 (  0.7684) /_  118.6
828        (  0)    0                0 (       0) /_    0.0

ELEMENT = "Load.D828_830SA"
828        ( 39)    1           9.3848 (  0.6528) /_    0.5
828        (  0)    0                0 (       0) /_    0.0

ELEMENT = "Load.D828_830RA"
830        ( 42)    1           9.2391 (  0.6427) /_    0.7
830        (  0)    0                0 (       0) /_    0.0

ELEMENT = "Load.D854_856SB"
854        ( 46)    2           10.388 (  0.7226) /_ -124.3
854        (  0)    0                0 (       0) /_    0.0

ELEMENT = "Load.D854_856RB"
856        ( 84)    2           10.386 (  0.7225) /_ -124.3
856        (  0)    0                0 (       0) /_    0.0

ELEMENT = "Load.D832_858SA"
832        ( 48)    1           9.6777 (  0.6732) /_    1.4
832        (  0)    0                0 (       0) /_    0.0

ELEMENT = "Load.D832_858RA"
858        ( 51)    1            9.576 (  0.6661) /_    1.6
858        (  0)    0                0 (       0) /_    0.0

ELEMENT = "Load.D832_858SB"
832        ( 49)    2           11.023 (  0.7667) /_ -124.4
832        (  0)    0                0 (       0) /_    0.0

ELEMENT = "Load.D832_858RB"
858        ( 52)    2           10.891 (  0.7576) /_ -124.4
858        (  0)    0                0 (       0) /_    0.0

ELEMENT = "Load.D832_858SC"
832        ( 50)    3           11.416 (  0.7941) /_  118.5
832        (  0)    0                0 (       0) /_    0.0

ELEMENT = "Load.D832_858RC"
858        ( 53)    3           11.295 (  0.7857) /_  118.5
858        (  0)    0                0 (       0) /_    0.0

ELEMENT = "Load.D858_864SB"
858        ( 51)    1            9.576 (  0.6661) /_    1.6
858        (  0)    0                0 (       0) /_    0.0

ELEMENT = "Load.D858_864RB"
864        ( 88)    1           9.5754 (  0.6661) /_    1.6
864        (  0)    0                0 (       0) /_    0.0

ELEMENT = "Load.D858_834SA"
858        ( 51)    1            9.576 (  0.6661) /_    1.6
858        ( 52)    2           10.891 (  0.7576) /_ -124.4

ELEMENT = "Load.D858_834RA"
834        ( 54)    1           9.4773 (  0.6592) /_    1.8
834        ( 55)    2           10.762 (  0.7486) /_ -124.4

ELEMENT = "Load.D858_834SB"
858        ( 52)    2           10.891 (  0.7576) /_ -124.4
858        ( 53)    3           11.295 (  0.7857) /_  118.5

ELEMENT = "Load.D858_834RB"
834        ( 55)    2           10.762 (  0.7486) /_ -124.4
834        ( 56)    3           11.178 (  0.7776) /_  118.5

ELEMENT = "Load.D858_834SC"
858        ( 53)    3           11.295 (  0.7857) /_  118.5
858        ( 51)    1            9.576 (  0.6661) /_    1.6

ELEMENT = "Load.D858_834RC"
834        ( 56)    3           11.178 (  0.7776) /_  118.5
834        ( 54)    1           9.4773 (  0.6592) /_    1.8

ELEMENT = "Load.D834_860SA"
834        ( 54)    1           9.4773 (  0.6592) /_    1.8
834        ( 55)    2           10.762 (  0.7486) /_ -124.4

ELEMENT = "Load.D834_860RA"
860        ( 57)    1           9.4398 (  0.6566) /_    1.9
860        ( 58)    2           10.716 (  0.7454) /_ -124.4

ELEMENT = "Load.D834_860SB"
834        ( 55)    2           10.762 (  0.7486) /_ -124.4
834        ( 56)    3           11.178 (  0.7776) /_  118.5

ELEMENT = "Load.D834_860RB"
860        ( 58)    2           10.716 (  0.7454) /_ -124.4
860        ( 59)    3           11.141 (   0.775) /_  118.5

ELEMENT = "Load.D834_860SC"
834        ( 56)    3           11.178 (  0.7776) /_  118.5
834        ( 54)    1           9.4773 (  0.6592) /_    1.8

ELEMENT = "Load.D834_860RC"
860        ( 59)    3           11.141 (   0.775) /_  118.5
860        ( 57)    1           9.4398 (  0.6566) /_    1.9

ELEMENT = "Load.D860_836SA"
860        ( 57)    1           9.4398 (  0.6566) /_    1.9
860        ( 58)    2           10.716 (  0.7454) /_ -124.4

ELEMENT = "Load.D860_836RA"
836        ( 63)    1           9.4259 (  0.6557) /_    1.9
836        ( 64)    2           10.686 (  0.7433) /_ -124.4

ELEMENT = "Load.D860_836SB"
860        ( 58)    2           10.716 (  0.7454) /_ -124.4
860        ( 59)    3           11.141 (   0.775) /_  118.5

ELEMENT = "Load.D860_836RB"
836        ( 64)    2           10.686 (  0.7433) /_ -124.4
836        ( 65)    3           11.131 (  0.7743) /_  118.5

ELEMENT = "Load.D860_836SC"
860        ( 59)    3           11.141 (   0.775) /_  118.5
860        ( 57)    1           9.4398 (  0.6566) /_    1.9

ELEMENT = "Load.D860_836RC"
836        ( 65)    3           11.131 (  0.7743) /_  118.5
836        ( 63)    1           9.4259 (  0.6557) /_    1.9

ELEMENT = "Load.D836_840SA"
836        ( 63)    1           9.4259 (  0.6557) /_    1.9
836        ( 64)    2           10.686 (  0.7433) /_ -124.4

ELEMENT = "Load.D836_840RA"
840        ( 66)    1           9.4213 (  0.6553) /_    1.9
840        ( 67)    2           10.679 (  0.7428) /_ -124.4

ELEMENT = "Load.D836_840SB"
836        ( 64)    2           10.686 (  0.7433) /_ -124.4
836        ( 65)    3           11.131 (  0.7743) /_  118.5

ELEMENT = "Load.D836_840RB"
840        ( 67)    2           10.679 (  0.7428) /_ -124.4
840        ( 68)    3           11.125 (  0.7738) /_  118.5

ELEMENT = "Load.D862_838SB"
862        ( 70)    2           10.671 (  0.7423) /_ -124.4
862        (  0)    0                0 (       0) /_    0.0

ELEMENT = "Load.D862_838RB"
838        ( 89)    2           10.664 (  0.7418) /_ -124.4
838        (  0)    0                0 (       0) /_    0.0

ELEMENT = "Load.D842_844SA"
842        ( 60)    1           9.4273 (  0.6558) /_    1.9
842        (  0)    0                0 (       0) /_    0.0

ELEMENT = "Load.D842_844RA"
844        ( 72)    1           9.3793 (  0.6524) /_    2.0
844        (  0)    0                0 (       0) /_    0.0

ELEMENT = "Load.D844_846SB"
844        ( 73)    2           10.602 (  0.7375) /_ -124.3
844        (  0)    0                0 (       0) /_    0.0

ELEMENT = "Load.D844_846RB"
846        ( 76)    2           10.575 (  0.7356) /_ -124.3
846        (  0)    0                0 (       0) /_    0.0

ELEMENT = "Load.D844_846SC"
844        ( 74)    3           11.045 (  0.7683) /_  118.5
844        (  0)    0                0 (       0) /_    0.0

ELEMENT = "Load.D844_846RC"
846        ( 77)    3           11.035 (  0.7676) /_  118.5
846        (  0)    0                0 (       0) /_    0.0

ELEMENT = "Load.D846_848SB"
846        ( 76)    2           10.575 (  0.7356) /_ -124.3
846        (  0)    0                0 (       0) /_    0.0

ELEMENT = "Load.D846_848RB"
848        ( 79)    2           10.561 (  0.7346) /_ -124.3
848        (  0)    0                0 (       0) /_    0.0

